OpenDSS_basics/13Bus/IEEE13Nodeckt_Curr_Seq.Txt

SYMMETRICAL COMPONENT CURRENTS BY CIRCUIT ELEMENT (first 3 phases)

Element            Term      I1         I2         %I2/I1    I0         %I0/I1   %Normal %Emergency

"VSOURCE.SOURCE" .   1      19.919       2.5359    12.73  1.5338E-011     0.00      0.00     0.00
   -                 2      19.919       2.5359    12.73  1.5338E-011     0.00      0.00     0.00
"TRANSFORMER.SUB"    1      19.919       2.5359    12.73  9.7033E-012     0.00     80.70    59.18
   -                 2      550.64       70.104    12.73      53.235     9.67      0.00     0.00
"TRANSFORMER.REG1"   1      594.26            0     0.00           0     0.00     77.82    57.07
   -                 2      562.61            0     0.00           0     0.00      0.00     0.00
"TRANSFORMER.REG2"   1      434.75            0     0.00           0     0.00     56.93    41.75
   -                 2      419.03            0     0.00           0     0.00      0.00     0.00
"TRANSFORMER.REG3"   1      625.08            0     0.00           0     0.00     81.86    60.03
   -                 2      591.79            0     0.00           0     0.00      0.00     0.00
"TRANSFORMER.XFM1"   1      69.128       6.2325     9.02      6.6314     9.59    107.29    78.68
   -                 2      599.11       54.015     9.02      57.472     9.59      0.00     0.00
"CAPACITOR.CAP1" .   1      82.748       1.5734     1.90      3.0402     3.67      0.00     0.00
   -                 2      82.748       1.5734     1.90      3.0402     3.67      0.00     0.00
"CAPACITOR.CAP2" .   1      40.064            0     0.00           0     0.00      0.00     0.00
   -                 2      40.064            0     0.00           0     0.00      0.00     0.00
"LINE.650632" ....   1      523.79       64.173    12.25      47.998     9.16    147.95    98.63
   -                 2      523.79       64.173    12.25      47.998     9.16      0.00     0.00
"LINE.632670" ....   1      392.21       105.04    26.78      72.792    18.56    120.48    80.32
   -                 2      392.21       105.04    26.78      72.792    18.56      0.00     0.00
"LINE.670671" ....   1      360.86       106.26    29.45      73.449    20.35    118.45    78.97
   -                 2      360.86       106.26    29.45      73.449    20.35      0.00     0.00
"LINE.671680" ....   1  0.00058058   1.0247E-005     1.77  9.4359E-006     1.63      0.00     0.00
   -                 2  2.5665E-012   3.8863E-012   151.43  1.1544E-012    44.98      0.00     0.00
"LINE.632633" ....   1      69.128       6.2325     9.02      6.6314     9.59     20.47    13.65
   -                 2      69.128       6.2325     9.02      6.6314     9.59      0.00     0.00
"LINE.632645" ....   1      64.377            0     0.00           0     0.00     16.09    10.73
   -                 2      64.377            0     0.00           0     0.00      0.00     0.00
"LINE.645646" ....   1      64.377            0     0.00           0     0.00     16.09    10.73
   -                 2      64.377            0     0.00           0     0.00      0.00     0.00
"LINE.692675" ....   1      120.26       45.144    37.54      67.922    56.48     51.71    34.48
   -                 2      120.25       45.144    37.54      67.921    56.48      0.00     0.00
"LINE.671684" ....   1      62.697            0     0.00           0     0.00     15.67    10.45
   -                 2      62.697            0     0.00           0     0.00      0.00     0.00
"LINE.684611" ....   1      71.157            0     0.00           0     0.00     17.79    11.86
   -                 2      71.157            0     0.00           0     0.00      0.00     0.00
"LINE.684652" ....   1      62.697            0     0.00           0     0.00     15.67    10.45
   -                 2      62.715            0     0.00           0     0.00      0.00     0.00
"LINE.671692" ....   1      142.81       71.926    50.36      67.922    47.56     57.74    38.49
   -                 2      142.81       71.926    50.36      67.922    47.56      0.00     0.00
"LOAD.671" .......   1      185.42     0.057869     0.03  1.0658E-014     0.00      0.00     0.00
"LOAD.634A" ......   1      709.76            0     0.00           0     0.00      0.00     0.00
"LOAD.634B" ......   1      536.74            0     0.00           0     0.00      0.00     0.00
"LOAD.634C" ......   1      550.96            0     0.00           0     0.00      0.00     0.00
"LOAD.645" .......   1      86.155            0     0.00           0     0.00      0.00     0.00
"LOAD.646" .......   1      64.377            0     0.00           0     0.00      0.00     0.00
"LOAD.692" .......   1      54.658            0     0.00           0     0.00      0.00     0.00
"LOAD.675A" ......   1      222.15            0     0.00           0     0.00      0.00     0.00
"LOAD.675B" ......   1      36.213            0     0.00           0     0.00      0.00     0.00
"LOAD.675C" ......   1      155.33            0     0.00           0     0.00      0.00     0.00
"LOAD.611" .......   1      78.285            0     0.00           0     0.00      0.00     0.00
"LOAD.652" .......   1      62.713            0     0.00           0     0.00      0.00     0.00
"LOAD.670A" ......   1      8.1791            0     0.00           0     0.00      0.00     0.00
"LOAD.670B" ......   1      30.729            0     0.00           0     0.00      0.00     0.00
"LOAD.670C" ......   1      56.931            0     0.00           0     0.00      0.00     0.00
